@<TRIPOS>MOLECULE
MOL
   61    60     1     0     0
SMALL
bcc


@<TRIPOS>ATOM
      1 C1         -20.2180     5.5970   -14.0890 c3         1 MOL      -0.092100
      2 C2         -19.3950     4.8020   -13.0500 c3         1 MOL      -0.080400
      3 C3         -18.5100     5.7180   -12.1670 c3         1 MOL      -0.079400
      4 C4         -17.6820     4.9230   -11.1230 c3         1 MOL      -0.079400
      5 C5         -16.8040     5.8570   -10.2500 c3         1 MOL      -0.078400
      6 C6         -15.9650     5.0920    -9.1950 c3         1 MOL      -0.079400
      7 C7         -15.0950     6.0480    -8.3310 c3         1 MOL      -0.078400
      8 C8         -14.2600     5.2780    -7.2780 c3         1 MOL      -0.079400
      9 C9         -13.3670     6.1850    -6.3880 c3         1 MOL      -0.077400
     10 C10        -12.5570     5.3360    -5.3760 c3         1 MOL      -0.078400
     11 C11        -11.5940     6.1600    -4.4860 c3         1 MOL      -0.100400
     12 C12        -10.7940     5.2470    -3.5240 c3         1 MOL       0.171400
     13 O1          -9.8720     6.0690    -2.7960 os         1 MOL      -0.594200
     14 P1          -8.9730     5.3170    -1.7100 p5         1 MOL       1.438800
     15 O2          -7.9060     4.5520    -2.3620 o          1 MOL      -0.822500
     16 O3          -9.8580     4.3580    -0.8060 o          1 MOL      -0.822500
     17 O4          -8.3350     6.4440    -0.7720 os         1 MOL      -0.548200
     18 C13         -9.3010     7.3450    -0.1920 c3         1 MOL       0.215400
     19 C14         -8.5510     8.3820     0.6900 c3         1 MOL       0.084800
     20 N1          -9.3820     9.4140     1.4380 n4         1 MOL      -0.591800
     21 C15         -8.4270    10.2930     2.2160 c3         1 MOL       0.090767
     22 C16        -10.3280     8.7530     2.4140 c3         1 MOL       0.090767
     23 C17        -10.1620    10.2870     0.4820 c3         1 MOL       0.090767
     24 H1         -20.8230     4.9100   -14.6840 hc         1 MOL       0.031700
     25 H2         -20.8830     6.3030   -13.5870 hc         1 MOL       0.031700
     26 H3         -19.5540     6.1470   -14.7590 hc         1 MOL       0.031700
     27 H4         -18.7620     4.0850   -13.5810 hc         1 MOL       0.038700
     28 H5         -20.0850     4.2400   -12.4140 hc         1 MOL       0.038700
     29 H6         -19.1500     6.4340   -11.6440 hc         1 MOL       0.038700
     30 H7         -17.8260     6.2790   -12.8110 hc         1 MOL       0.038700
     31 H8         -18.3630     4.3620   -10.4760 hc         1 MOL       0.039700
     32 H9         -17.0380     4.2070   -11.6440 hc         1 MOL       0.039700
     33 H10        -16.1250     6.4170   -10.9010 hc         1 MOL       0.038200
     34 H11        -17.4510     6.5720    -9.7340 hc         1 MOL       0.038200
     35 H12        -15.3130     4.3760    -9.7070 hc         1 MOL       0.040200
     36 H13        -16.6400     4.5290    -8.5420 hc         1 MOL       0.040200
     37 H14        -14.4200     6.6080    -8.9870 hc         1 MOL       0.037700
     38 H15        -15.7480     6.7630    -7.8210 hc         1 MOL       0.037700
     39 H16        -13.6220     4.5600    -7.8010 hc         1 MOL       0.040200
     40 H17        -14.9440     4.7180    -6.6330 hc         1 MOL       0.040200
     41 H18        -12.6760     6.7510    -7.0200 hc         1 MOL       0.036700
     42 H19        -13.9940     6.8960    -5.8420 hc         1 MOL       0.036700
     43 H20        -11.9660     4.6010    -5.9320 hc         1 MOL       0.041200
     44 H21        -13.2540     4.7930    -4.7300 hc         1 MOL       0.041200
     45 H22        -12.1680     6.8830    -3.8970 hc         1 MOL       0.040700
     46 H23        -10.8980     6.7160    -5.1230 hc         1 MOL       0.040700
     47 H24        -11.4990     4.7590    -2.8430 h1         1 MOL       0.045700
     48 H25        -10.2600     4.4880    -4.1040 h1         1 MOL       0.045700
     49 H26        -10.0170     6.7910     0.4200 h1         1 MOL       0.042200
     50 H27         -9.8450     7.8770    -0.9780 h1         1 MOL       0.042200
     51 H28         -7.9500     7.8050     1.4050 hx         1 MOL       0.088200
     52 H29         -7.8360     8.8930     0.0310 hx         1 MOL       0.088200
     53 H30         -8.9590    11.0610     2.7860 hx         1 MOL       0.096700
     54 H31         -7.8360     9.7070     2.9270 hx         1 MOL       0.096700
     55 H32         -7.7250    10.8060     1.5510 hx         1 MOL       0.096700
     56 H33        -11.1180     8.1970     1.9040 hx         1 MOL       0.096700
     57 H34        -10.8220     9.4860     3.0620 hx         1 MOL       0.096700
     58 H35         -9.7970     8.0500     3.0620 hx         1 MOL       0.096700
     59 H36        -10.9310     9.7220    -0.0490 hx         1 MOL       0.096700
     60 H37         -9.5050    10.7350    -0.2680 hx         1 MOL       0.096700
     61 H38        -10.6710    11.1050     1.0040 hx         1 MOL       0.096700
@<TRIPOS>BOND
     1     1     2 1   
     2     2     3 1   
     3     3     4 1   
     4     4     5 1   
     5     5     6 1   
     6     6     7 1   
     7     7     8 1   
     8     8     9 1   
     9     9    10 1   
    10    10    11 1   
    11    11    12 1   
    12    12    13 1   
    13    13    14 1   
    14    14    15 1   
    15    14    16 1   
    16    14    17 1   
    17    17    18 1   
    18    18    19 1   
    19    19    20 1   
    20    20    21 1   
    21    20    22 1   
    22    20    23 1   
    23     1    24 1   
    24     1    25 1   
    25     1    26 1   
    26     2    27 1   
    27     2    28 1   
    28     3    29 1   
    29     3    30 1   
    30     4    31 1   
    31     4    32 1   
    32     5    33 1   
    33     5    34 1   
    34     6    35 1   
    35     6    36 1   
    36     7    37 1   
    37     7    38 1   
    38     8    39 1   
    39     8    40 1   
    40     9    41 1   
    41     9    42 1   
    42    10    43 1   
    43    10    44 1   
    44    11    45 1   
    45    11    46 1   
    46    12    47 1   
    47    12    48 1   
    48    18    49 1   
    49    18    50 1   
    50    19    51 1   
    51    19    52 1   
    52    21    53 1   
    53    21    54 1   
    54    21    55 1   
    55    22    56 1   
    56    22    57 1   
    57    22    58 1   
    58    23    59 1   
    59    23    60 1   
    60    23    61 1   
@<TRIPOS>SUBSTRUCTURE
     1 MOL         1 TEMP              0 ****  ****    0 ROOT
